  Page 1                                    Sun Aug 19 23:24:27 2018

  ******************************************************************
  *                           E P A N E T                          *
  *                   Hydraulic and Water Quality                  *
  *                   Analysis for Pipe Networks                   *
  *                         Version 2.00.12                        *
  ******************************************************************
  
  Analysis begun Sun Aug 19 23:24:27 2018

  Analysis ended Sun Aug 19 23:24:40 2018
