  Page 1                                    Wed Oct 31 21:08:52 2018

  ******************************************************************
  *                           E P A N E T                          *
  *                   Hydraulic and Water Quality                  *
  *                   Analysis for Pipe Networks                   *
  *                         Version 2.00.12                        *
  ******************************************************************
  
  Analysis begun Wed Oct 31 21:08:52 2018

  WARNING: Negative pressures at 0:00:00 hrs.
  
  WARNING: Negative pressures at 0:00:00 hrs.
  
  WARNING: Negative pressures at 0:00:00 hrs.
  
  WARNING: Negative pressures at 0:00:00 hrs.
  
  WARNING: Negative pressures at 0:00:00 hrs.
  
  WARNING: Negative pressures at 0:00:00 hrs.
  
  WARNING: Negative pressures at 0:00:00 hrs.
  
  WARNING: Negative pressures at 0:00:00 hrs.
  
  WARNING: Negative pressures at 0:00:00 hrs.
  
  WARNING: Negative pressures at 0:00:00 hrs.
  
  Analysis ended Wed Oct 31 21:09:18 2018
