  Page 1                                    Mon Aug 20 20:41:32 2018

  ******************************************************************
  *                           E P A N E T                          *
  *                   Hydraulic and Water Quality                  *
  *                   Analysis for Pipe Networks                   *
  *                         Version 2.00.12                        *
  ******************************************************************
  
  Analysis begun Mon Aug 20 20:41:32 2018

  WARNING: Negative pressures at 0:00:00 hrs.
  
  WARNING: Negative pressures at 0:00:00 hrs.
  
  WARNING: Negative pressures at 0:00:00 hrs.
  
  WARNING: Negative pressures at 0:00:00 hrs.
  
  WARNING: Negative pressures at 0:00:00 hrs.
  
  WARNING: Negative pressures at 0:00:00 hrs.
  
  WARNING: Negative pressures at 0:00:00 hrs.
  
  WARNING: Negative pressures at 0:00:00 hrs.
  
  WARNING: Negative pressures at 0:00:00 hrs.
  
  WARNING: Negative pressures at 0:00:00 hrs.
  
  WARNING: Negative pressures at 0:00:00 hrs.
  
  WARNING: Negative pressures at 0:00:00 hrs.
  
  WARNING: Negative pressures at 0:00:00 hrs.
  
  WARNING: Negative pressures at 0:00:00 hrs.
  
  WARNING: Negative pressures at 0:00:00 hrs.
  
  WARNING: Negative pressures at 0:00:00 hrs.
  
  WARNING: Negative pressures at 0:00:00 hrs.
  
  WARNING: Negative pressures at 0:00:00 hrs.
  
  WARNING: Negative pressures at 0:00:00 hrs.
  
  WARNING: Negative pressures at 0:00:00 hrs.
  
  WARNING: Negative pressures at 0:00:00 hrs.
  
  WARNING: Negative pressures at 0:00:00 hrs.
  
  WARNING: Negative pressures at 0:00:00 hrs.
  
  WARNING: Negative pressures at 0:00:00 hrs.
  
  WARNING: Negative pressures at 0:00:00 hrs.
  
  WARNING: Negative pressures at 0:00:00 hrs.
  
  WARNING: Negative pressures at 0:00:00 hrs.
  
  WARNING: Negative pressures at 0:00:00 hrs.
  
  WARNING: Negative pressures at 0:00:00 hrs.
  
  WARNING: Negative pressures at 0:00:00 hrs.
  
  WARNING: Negative pressures at 0:00:00 hrs.
  
  WARNING: Negative pressures at 0:00:00 hrs.
  
  WARNING: Negative pressures at 0:00:00 hrs.
  
  WARNING: Negative pressures at 0:00:00 hrs.
  
  WARNING: Negative pressures at 0:00:00 hrs.
  
  WARNING: Negative pressures at 0:00:00 hrs.
  
  WARNING: Negative pressures at 0:00:00 hrs.
  
  WARNING: Negative pressures at 0:00:00 hrs.
  
  WARNING: Negative pressures at 0:00:00 hrs.
  
  WARNING: Negative pressures at 0:00:00 hrs.
  
  WARNING: Negative pressures at 0:00:00 hrs.
  
  WARNING: Negative pressures at 0:00:00 hrs.
  
  WARNING: Negative pressures at 0:00:00 hrs.
  
  WARNING: Negative pressures at 0:00:00 hrs.
  
  WARNING: Negative pressures at 0:00:00 hrs.
  
  WARNING: Negative pressures at 0:00:00 hrs.
  
  WARNING: Negative pressures at 0:00:00 hrs.
  
  WARNING: Negative pressures at 0:00:00 hrs.
  
  WARNING: Negative pressures at 0:00:00 hrs.
  
  WARNING: Negative pressures at 0:00:00 hrs.
  
  WARNING: Negative pressures at 0:00:00 hrs.
  
  WARNING: Negative pressures at 0:00:00 hrs.
  
  WARNING: Negative pressures at 0:00:00 hrs.
  
  WARNING: Negative pressures at 0:00:00 hrs.
  
  WARNING: Negative pressures at 0:00:00 hrs.
  
  WARNING: Negative pressures at 0:00:00 hrs.
  
  WARNING: Negative pressures at 0:00:00 hrs.
  
  WARNING: Negative pressures at 0:00:00 hrs.
  
  WARNING: Negative pressures at 0:00:00 hrs.
  
  WARNING: Negative pressures at 0:00:00 hrs.
  
  WARNING: Negative pressures at 0:00:00 hrs.
  
  WARNING: Negative pressures at 0:00:00 hrs.
  
  WARNING: Negative pressures at 0:00:00 hrs.
  
  WARNING: Negative pressures at 0:00:00 hrs.
  
  WARNING: Negative pressures at 0:00:00 hrs.
  
  WARNING: Negative pressures at 0:00:00 hrs.
  
  WARNING: Negative pressures at 0:00:00 hrs.
  
  WARNING: Negative pressures at 0:00:00 hrs.
  
  WARNING: Negative pressures at 0:00:00 hrs.
  
  WARNING: Negative pressures at 0:00:00 hrs.
  
  WARNING: Negative pressures at 0:00:00 hrs.
  
  WARNING: Negative pressures at 0:00:00 hrs.
  
  WARNING: Negative pressures at 0:00:00 hrs.
  
  WARNING: Negative pressures at 0:00:00 hrs.
  
  WARNING: Negative pressures at 0:00:00 hrs.
  
  WARNING: Negative pressures at 0:00:00 hrs.
  
  WARNING: Negative pressures at 0:00:00 hrs.
  
  WARNING: Negative pressures at 0:00:00 hrs.
  
  WARNING: Negative pressures at 0:00:00 hrs.
  
  WARNING: Negative pressures at 0:00:00 hrs.
  
  WARNING: Negative pressures at 0:00:00 hrs.
  
  WARNING: Negative pressures at 0:00:00 hrs.
  
  WARNING: Negative pressures at 0:00:00 hrs.
  
  WARNING: Negative pressures at 0:00:00 hrs.
  
  WARNING: Negative pressures at 0:00:00 hrs.
  
  WARNING: Negative pressures at 0:00:00 hrs.
  
  WARNING: Negative pressures at 0:00:00 hrs.
  
  WARNING: Negative pressures at 0:00:00 hrs.
  
  WARNING: Negative pressures at 0:00:00 hrs.
  
  WARNING: Negative pressures at 0:00:00 hrs.
  
  WARNING: Negative pressures at 0:00:00 hrs.
  
  WARNING: Negative pressures at 0:00:00 hrs.
  
  WARNING: Negative pressures at 0:00:00 hrs.
  
  WARNING: Negative pressures at 0:00:00 hrs.
  
  WARNING: Negative pressures at 0:00:00 hrs.
  
  WARNING: Negative pressures at 0:00:00 hrs.
  
  WARNING: Negative pressures at 0:00:00 hrs.
  
  WARNING: Negative pressures at 0:00:00 hrs.
  
  WARNING: Negative pressures at 0:00:00 hrs.
  
  WARNING: Negative pressures at 0:00:00 hrs.
  
  WARNING: Negative pressures at 0:00:00 hrs.
  
  WARNING: Negative pressures at 0:00:00 hrs.
  
  WARNING: Negative pressures at 0:00:00 hrs.
  
  WARNING: Negative pressures at 0:00:00 hrs.
  
  WARNING: Negative pressures at 0:00:00 hrs.
  
  WARNING: Negative pressures at 0:00:00 hrs.
  
  WARNING: Negative pressures at 0:00:00 hrs.
  
  WARNING: Negative pressures at 0:00:00 hrs.
  
  WARNING: Negative pressures at 0:00:00 hrs.
  
  WARNING: Negative pressures at 0:00:00 hrs.
  
  WARNING: Negative pressures at 0:00:00 hrs.
  
  WARNING: Negative pressures at 0:00:00 hrs.
  
  WARNING: Negative pressures at 0:00:00 hrs.
  
  WARNING: Negative pressures at 0:00:00 hrs.
  
  WARNING: Negative pressures at 0:00:00 hrs.
  
  WARNING: Negative pressures at 0:00:00 hrs.
  
  WARNING: Negative pressures at 0:00:00 hrs.
  
  WARNING: Negative pressures at 0:00:00 hrs.
  
  WARNING: Negative pressures at 0:00:00 hrs.
  
  WARNING: Negative pressures at 0:00:00 hrs.
  
  WARNING: Negative pressures at 0:00:00 hrs.
  
  WARNING: Negative pressures at 0:00:00 hrs.
  
  WARNING: Negative pressures at 0:00:00 hrs.
  
  WARNING: Negative pressures at 0:00:00 hrs.
  
  WARNING: Negative pressures at 0:00:00 hrs.
  
  WARNING: Negative pressures at 0:00:00 hrs.
  
  WARNING: Negative pressures at 0:00:00 hrs.
  
  WARNING: Negative pressures at 0:00:00 hrs.
  
  WARNING: Negative pressures at 0:00:00 hrs.
  
  WARNING: Negative pressures at 0:00:00 hrs.
  
  WARNING: Negative pressures at 0:00:00 hrs.
  
  WARNING: Negative pressures at 0:00:00 hrs.
  
  WARNING: Negative pressures at 0:00:00 hrs.
  
  WARNING: Negative pressures at 0:00:00 hrs.
  
  WARNING: Negative pressures at 0:00:00 hrs.
  
  WARNING: Negative pressures at 0:00:00 hrs.
  
  WARNING: Negative pressures at 0:00:00 hrs.
  
  WARNING: Negative pressures at 0:00:00 hrs.
  
  WARNING: Negative pressures at 0:00:00 hrs.
  
  WARNING: Negative pressures at 0:00:00 hrs.
  
  WARNING: Negative pressures at 0:00:00 hrs.
  
  WARNING: Negative pressures at 0:00:00 hrs.
  
  WARNING: Negative pressures at 0:00:00 hrs.
  
  WARNING: Negative pressures at 0:00:00 hrs.
  
  WARNING: Negative pressures at 0:00:00 hrs.
  
  WARNING: Negative pressures at 0:00:00 hrs.
  
  WARNING: Negative pressures at 0:00:00 hrs.
  
  WARNING: Negative pressures at 0:00:00 hrs.
  
  WARNING: Negative pressures at 0:00:00 hrs.
  
  WARNING: Negative pressures at 0:00:00 hrs.
  
  WARNING: Negative pressures at 0:00:00 hrs.
  
  WARNING: Negative pressures at 0:00:00 hrs.
  
  WARNING: Negative pressures at 0:00:00 hrs.
  
  WARNING: Negative pressures at 0:00:00 hrs.
  
  WARNING: Negative pressures at 0:00:00 hrs.
  
  WARNING: Negative pressures at 0:00:00 hrs.
  
  WARNING: Negative pressures at 0:00:00 hrs.
  
  WARNING: Negative pressures at 0:00:00 hrs.
  
  WARNING: Negative pressures at 0:00:00 hrs.
  
  WARNING: Negative pressures at 0:00:00 hrs.
  
  WARNING: Negative pressures at 0:00:00 hrs.
  
  WARNING: Negative pressures at 0:00:00 hrs.
  
  WARNING: Negative pressures at 0:00:00 hrs.
  
  WARNING: Negative pressures at 0:00:00 hrs.
  
  WARNING: Negative pressures at 0:00:00 hrs.
  
  WARNING: Negative pressures at 0:00:00 hrs.
  
  WARNING: Negative pressures at 0:00:00 hrs.
  
  WARNING: Negative pressures at 0:00:00 hrs.
  
  WARNING: Negative pressures at 0:00:00 hrs.
  
  WARNING: Negative pressures at 0:00:00 hrs.
  
  WARNING: Negative pressures at 0:00:00 hrs.
  
  WARNING: Negative pressures at 0:00:00 hrs.
  
  WARNING: Negative pressures at 0:00:00 hrs.
  
  WARNING: Negative pressures at 0:00:00 hrs.
  
  WARNING: Negative pressures at 0:00:00 hrs.
  
  WARNING: Negative pressures at 0:00:00 hrs.
  
  WARNING: Negative pressures at 0:00:00 hrs.
  
  WARNING: Negative pressures at 0:00:00 hrs.
  
  WARNING: Negative pressures at 0:00:00 hrs.
  
  WARNING: Negative pressures at 0:00:00 hrs.
  
  WARNING: Negative pressures at 0:00:00 hrs.
  
  WARNING: Negative pressures at 0:00:00 hrs.
  
  WARNING: Negative pressures at 0:00:00 hrs.
  
  WARNING: Negative pressures at 0:00:00 hrs.
  
  WARNING: Negative pressures at 0:00:00 hrs.
  
  WARNING: Negative pressures at 0:00:00 hrs.
  
  WARNING: Negative pressures at 0:00:00 hrs.
  
  WARNING: Negative pressures at 0:00:00 hrs.
  
  WARNING: Negative pressures at 0:00:00 hrs.
  
  WARNING: Negative pressures at 0:00:00 hrs.
  
  WARNING: Negative pressures at 0:00:00 hrs.
  
  WARNING: Negative pressures at 0:00:00 hrs.
  
  WARNING: Negative pressures at 0:00:00 hrs.
  
  WARNING: Negative pressures at 0:00:00 hrs.
  
  WARNING: Negative pressures at 0:00:00 hrs.
  
  WARNING: Negative pressures at 0:00:00 hrs.
  
  WARNING: Negative pressures at 0:00:00 hrs.
  
  WARNING: Negative pressures at 0:00:00 hrs.
  
  WARNING: Negative pressures at 0:00:00 hrs.
  
  WARNING: Negative pressures at 0:00:00 hrs.
  
  WARNING: Negative pressures at 0:00:00 hrs.
  
  WARNING: Negative pressures at 0:00:00 hrs.
  
  WARNING: Negative pressures at 0:00:00 hrs.
  
  WARNING: Negative pressures at 0:00:00 hrs.
  
  WARNING: Negative pressures at 0:00:00 hrs.
  
  WARNING: Negative pressures at 0:00:00 hrs.
  
  WARNING: Negative pressures at 0:00:00 hrs.
  
  WARNING: Negative pressures at 0:00:00 hrs.
  
  WARNING: Negative pressures at 0:00:00 hrs.
  
  WARNING: Negative pressures at 0:00:00 hrs.
  
  WARNING: Negative pressures at 0:00:00 hrs.
  