  Page 1                                    Mon Aug 20 20:07:57 2018

  ******************************************************************
  *                           E P A N E T                          *
  *                   Hydraulic and Water Quality                  *
  *                   Analysis for Pipe Networks                   *
  *                         Version 2.00.12                        *
  ******************************************************************
  
  Analysis begun Mon Aug 20 20:07:57 2018

  WARNING: Negative pressures at 0:00:00 hrs.
  
   
  Node Results:
  ----------------------------------------------
                     Demand      Head  Pressure
  Node                  L/s         m         m
  ----------------------------------------------
  2                   39.48     92.10      2.10
  3                   22.80     89.95     -0.05
  4                   32.19     88.52      0.52
  5                   25.46     88.00      0.00
  6                   24.04     84.99     -0.01
  7                   23.74     84.98     -0.02
  1                 -167.72    100.00     -0.00  Reservoir
   
  Analysis ended Mon Aug 20 20:08:39 2018
