  Page 1                                    Mon Aug 20 20:17:26 2018

  ******************************************************************
  *                           E P A N E T                          *
  *                   Hydraulic and Water Quality                  *
  *                   Analysis for Pipe Networks                   *
  *                         Version 2.00.12                        *
  ******************************************************************
  
  Analysis begun Mon Aug 20 20:17:26 2018

   
  Node Results:
  ----------------------------------------------
                     Demand      Head  Pressure
  Node                  L/s         m         m
  ----------------------------------------------
  2                   10.34     91.70      1.70
  3                    7.86     90.98      0.98
  4                   11.81     90.24      2.24
  5                   11.07     89.96      1.96
  6                   12.41     87.47      2.47
  7                   32.57     86.89      1.89
  1                  -86.06     94.00      0.00  Reservoir
   
  Analysis ended Mon Aug 20 20:17:27 2018
