  Page 1                                    Mon Aug 20 20:47:40 2018

  ******************************************************************
  *                           E P A N E T                          *
  *                   Hydraulic and Water Quality                  *
  *                   Analysis for Pipe Networks                   *
  *                         Version 2.00.12                        *
  ******************************************************************
  
  Analysis begun Mon Aug 20 20:47:40 2018

  Analysis ended Mon Aug 20 20:47:41 2018
