  Page 1                                    Wed Oct 31 22:55:32 2018

  ******************************************************************
  *                           E P A N E T                          *
  *                   Hydraulic and Water Quality                  *
  *                   Analysis for Pipe Networks                   *
  *                         Version 2.00.12                        *
  ******************************************************************
  
  Analysis begun Wed Oct 31 22:55:32 2018

  Analysis ended Wed Oct 31 22:55:34 2018
