  Page 1                                    Sun Aug 19 23:22:31 2018

  ******************************************************************
  *                           E P A N E T                          *
  *                   Hydraulic and Water Quality                  *
  *                   Analysis for Pipe Networks                   *
  *                         Version 2.00.12                        *
  ******************************************************************
  
  Analysis begun Sun Aug 19 23:22:31 2018

  WARNING: Negative pressures at 0:00:00 hrs.
  
   
  Node Results:
  ----------------------------------------------
                     Demand      Head  Pressure
  Node                  L/s         m         m
  ----------------------------------------------
  2                    0.00     31.51     -1.49
  3                  100.00     19.62      4.62
  4                   20.00     31.69     16.69
  5                  200.00     11.32     -3.68
  1                 -320.00     35.00      0.00  Reservoir
   
  Analysis ended Sun Aug 19 23:22:31 2018
