  Page 1                                    Thu Aug 02 23:02:58 2018

  ******************************************************************
  *                           E P A N E T                          *
  *                   Hydraulic and Water Quality                  *
  *                   Analysis for Pipe Networks                   *
  *                         Version 2.00.12                        *
  ******************************************************************
  
  Analysis begun Thu Aug 02 23:02:58 2018

   
  Node Results:
  ----------------------------------------------
                     Demand      Head  Pressure
  Node                  L/s         m         m
  ----------------------------------------------
  2                    0.00     32.50     -0.50
  3                   50.00     24.72      9.72
  4                   20.00     32.51     17.51
  5                  200.00     15.21      0.21
  1                 -270.00     35.00      0.00  Reservoir
   
  Analysis ended Thu Aug 02 23:02:58 2018
