  Page 1                                    Thu Aug 02 23:02:58 2018

  ******************************************************************
  *                           E P A N E T                          *
  *                   Hydraulic and Water Quality                  *
  *                   Analysis for Pipe Networks                   *
  *                         Version 2.00.12                        *
  ******************************************************************
  
  Analysis begun Thu Aug 02 23:02:58 2018

   
  Node Results:
  ----------------------------------------------
                     Demand      Head  Pressure
  Node                  L/s         m         m
  ----------------------------------------------
  2                    0.00     33.77      0.77
  3                   49.65     29.94     14.94
  4                   20.00     33.77     18.77
  5                  114.65     26.85     11.85
  1                 -184.29     35.00      0.00  Reservoir
   
  Analysis ended Thu Aug 02 23:02:58 2018
