  Page 1                                    Sun Aug 19 23:22:31 2018

  ******************************************************************
  *                           E P A N E T                          *
  *                   Hydraulic and Water Quality                  *
  *                   Analysis for Pipe Networks                   *
  *                         Version 2.00.12                        *
  ******************************************************************
  
  Analysis begun Sun Aug 19 23:22:31 2018

   
  Node Results:
  ----------------------------------------------
                     Demand      Head  Pressure
  Node                  L/s         m         m
  ----------------------------------------------
  2                    0.00     33.16      0.16
  3                   78.66     26.96     11.96
  4                   19.17     33.23     18.23
  5                  129.42     23.48      8.48
  1                 -227.24     35.00      0.00  Reservoir
   
  Analysis ended Sun Aug 19 23:22:31 2018
