  Page 1                                    Tue May 22 22:34:08 2018

  ******************************************************************
  *                           E P A N E T                          *
  *                   Hydraulic and Water Quality                  *
  *                   Analysis for Pipe Networks                   *
  *                         Version 2.00.12                        *
  ******************************************************************
  
  Analysis begun Tue May 22 22:34:08 2018

  WARNING: Negative pressures at 0:00:00 hrs.
  
  WARNING: Negative pressures at 0:00:00 hrs.
  
  WARNING: Negative pressures at 1:00:00 hrs.
  
  WARNING: Negative pressures at 1:00:00 hrs.
  
  WARNING: Negative pressures at 2:00:00 hrs.
  
  WARNING: Negative pressures at 2:00:00 hrs.
  
  WARNING: Negative pressures at 3:00:00 hrs.
  
  WARNING: Negative pressures at 3:00:00 hrs.
  
  WARNING: Negative pressures at 4:00:00 hrs.
  
  WARNING: Negative pressures at 4:00:00 hrs.
  
  WARNING: Negative pressures at 5:00:00 hrs.
  
  WARNING: Negative pressures at 5:00:00 hrs.
  
  WARNING: Negative pressures at 6:00:00 hrs.
  
  WARNING: Negative pressures at 6:00:00 hrs.
  
  WARNING: Negative pressures at 7:00:00 hrs.
  
  WARNING: Negative pressures at 7:00:00 hrs.
  
  WARNING: Negative pressures at 8:00:00 hrs.
  
  WARNING: Negative pressures at 8:00:00 hrs.
  
  WARNING: Negative pressures at 9:00:00 hrs.
  
  WARNING: Negative pressures at 9:00:00 hrs.
  
  WARNING: Negative pressures at 10:00:00 hrs.
  
  WARNING: Negative pressures at 10:00:00 hrs.
  
  WARNING: Negative pressures at 11:00:00 hrs.
  
  WARNING: Negative pressures at 11:00:00 hrs.
  
  WARNING: Negative pressures at 12:00:00 hrs.
  
  WARNING: Negative pressures at 12:00:00 hrs.
  
  WARNING: Negative pressures at 13:00:00 hrs.
  
  WARNING: Negative pressures at 13:00:00 hrs.
  
  WARNING: Negative pressures at 14:00:00 hrs.
  
  WARNING: Negative pressures at 14:00:00 hrs.
  
  WARNING: Negative pressures at 15:00:00 hrs.
  
  WARNING: Negative pressures at 15:00:00 hrs.
  
  WARNING: Negative pressures at 16:00:00 hrs.
  
  WARNING: Negative pressures at 16:00:00 hrs.
  
  WARNING: Negative pressures at 17:00:00 hrs.
  
  WARNING: Negative pressures at 17:00:00 hrs.
  
  WARNING: Negative pressures at 18:00:00 hrs.
  
  WARNING: Negative pressures at 18:00:00 hrs.
  
  WARNING: Negative pressures at 19:00:00 hrs.
  
  WARNING: Negative pressures at 19:00:00 hrs.
  
  WARNING: Negative pressures at 20:00:00 hrs.
  
  WARNING: Negative pressures at 20:00:00 hrs.
  
  WARNING: Negative pressures at 21:00:00 hrs.
  
  WARNING: Negative pressures at 21:00:00 hrs.
  
  WARNING: Negative pressures at 22:00:00 hrs.
  
  WARNING: Negative pressures at 22:00:00 hrs.
  
  WARNING: Negative pressures at 23:00:00 hrs.
  
  WARNING: Negative pressures at 23:00:00 hrs.
  
  WARNING: Negative pressures at 24:00:00 hrs.
  
  WARNING: Negative pressures at 24:00:00 hrs.
  
   
  Node Results at 0:00:00 hrs:
  ----------------------------------------------
                     Demand      Head  Pressure
  Node                  Lpm         m         m
  ----------------------------------------------
  2                 1309.22     98.28      8.28
  3                 1294.04     96.13      8.13
  4                 1279.94     93.54      3.54
  5                 2398.71     92.36      7.36
  1                -6281.90    100.00     -0.00  Reservoir
   
   
  Node Results at 1:00:00 hrs:
  ----------------------------------------------
                     Demand      Head  Pressure
  Node                  Lpm         m         m
  ----------------------------------------------
  2                 1309.22     98.28      8.28
  3                 1294.04     96.13      8.13
  4                 1279.94     93.54      3.54
  5                 2398.71     92.36      7.36
  1                -6281.90    100.00     -0.00  Reservoir
   
   
  Node Results at 2:00:00 hrs:
  ----------------------------------------------
                     Demand      Head  Pressure
  Node                  Lpm         m         m
  ----------------------------------------------
  2                 1309.22     98.28      8.28
  3                 1294.04     96.13      8.13
  4                 1279.94     93.54      3.54
  5                 2398.71     92.36      7.36
  1                -6281.90    100.00     -0.00  Reservoir
   
   
  Node Results at 3:00:00 hrs:
  ----------------------------------------------
                     Demand      Head  Pressure
  Node                  Lpm         m         m
  ----------------------------------------------
  2                 1309.22     98.28      8.28
  3                 1294.04     96.13      8.13
  4                 1279.94     93.54      3.54
  5                 2398.71     92.36      7.36
  1                -6281.90    100.00     -0.00  Reservoir
   
   
  Node Results at 4:00:00 hrs:
  ----------------------------------------------
                     Demand      Head  Pressure
  Node                  Lpm         m         m
  ----------------------------------------------
  2                 1309.22     98.28      8.28
  3                 1294.04     96.13      8.13
  4                 1279.94     93.54      3.54
  5                 2398.71     92.36      7.36
  1                -6281.90    100.00     -0.00  Reservoir
   
   
  Node Results at 5:00:00 hrs:
  ----------------------------------------------
                     Demand      Head  Pressure
  Node                  Lpm         m         m
  ----------------------------------------------
  2                 1309.22     98.28      8.28
  3                 1294.04     96.13      8.13
  4                 1279.94     93.54      3.54
  5                 2398.71     92.36      7.36
  1                -6281.90    100.00     -0.00  Reservoir
   
   
  Node Results at 6:00:00 hrs:
  ----------------------------------------------
                     Demand      Head  Pressure
  Node                  Lpm         m         m
  ----------------------------------------------
  2                 1309.22     98.28      8.28
  3                 1294.04     96.13      8.13
  4                 1279.94     93.54      3.54
  5                 2398.71     92.36      7.36
  1                -6281.90    100.00     -0.00  Reservoir
   
   
  Node Results at 7:00:00 hrs:
  ----------------------------------------------
                     Demand      Head  Pressure
  Node                  Lpm         m         m
  ----------------------------------------------
  2                 1309.22     98.28      8.28
  3                 1294.04     96.13      8.13
  4                 1279.94     93.54      3.54
  5                 2398.71     92.36      7.36
  1                -6281.90    100.00     -0.00  Reservoir
   
   
  Node Results at 8:00:00 hrs:
  ----------------------------------------------
                     Demand      Head  Pressure
  Node                  Lpm         m         m
  ----------------------------------------------
  2                 1309.22     98.28      8.28
  3                 1294.04     96.13      8.13
  4                 1279.94     93.54      3.54
  5                 2398.71     92.36      7.36
  1                -6281.90    100.00     -0.00  Reservoir
   
   
  Node Results at 9:00:00 hrs:
  ----------------------------------------------
                     Demand      Head  Pressure
  Node                  Lpm         m         m
  ----------------------------------------------
  2                 1309.22     98.28      8.28
  3                 1294.04     96.13      8.13
  4                 1279.94     93.54      3.54
  5                 2398.71     92.36      7.36
  1                -6281.90    100.00     -0.00  Reservoir
   
   
  Node Results at 10:00:00 hrs:
  ----------------------------------------------
                     Demand      Head  Pressure
  Node                  Lpm         m         m
  ----------------------------------------------
  2                 1309.22     98.28      8.28
  3                 1294.04     96.13      8.13
  4                 1279.94     93.54      3.54
  5                 2398.71     92.36      7.36
  1                -6281.90    100.00     -0.00  Reservoir
   
   
  Node Results at 11:00:00 hrs:
  ----------------------------------------------
                     Demand      Head  Pressure
  Node                  Lpm         m         m
  ----------------------------------------------
  2                 1309.22     98.28      8.28
  3                 1294.04     96.13      8.13
  4                 1279.94     93.54      3.54
  5                 2398.71     92.36      7.36
  1                -6281.90    100.00     -0.00  Reservoir
   
   
  Node Results at 12:00:00 hrs:
  ----------------------------------------------
                     Demand      Head  Pressure
  Node                  Lpm         m         m
  ----------------------------------------------
  2                 1309.22     98.28      8.28
  3                 1294.04     96.13      8.13
  4                 1279.94     93.54      3.54
  5                 2398.71     92.36      7.36
  1                -6281.90    100.00     -0.00  Reservoir
   
   
  Node Results at 13:00:00 hrs:
  ----------------------------------------------
                     Demand      Head  Pressure
  Node                  Lpm         m         m
  ----------------------------------------------
  2                 1309.22     98.28      8.28
  3                 1294.04     96.13      8.13
  4                 1279.94     93.54      3.54
  5                 2398.71     92.36      7.36
  1                -6281.90    100.00     -0.00  Reservoir
   
   
  Node Results at 14:00:00 hrs:
  ----------------------------------------------
                     Demand      Head  Pressure
  Node                  Lpm         m         m
  ----------------------------------------------
  2                 1309.22     98.28      8.28
  3                 1294.04     96.13      8.13
  4                 1279.94     93.54      3.54
  5                 2398.71     92.36      7.36
  1                -6281.90    100.00     -0.00  Reservoir
   
   
  Node Results at 15:00:00 hrs:
  ----------------------------------------------
                     Demand      Head  Pressure
  Node                  Lpm         m         m
  ----------------------------------------------
  2                 1309.22     98.28      8.28
  3                 1294.04     96.13      8.13
  4                 1279.94     93.54      3.54
  5                 2398.71     92.36      7.36
  1                -6281.90    100.00     -0.00  Reservoir
   
   
  Node Results at 16:00:00 hrs:
  ----------------------------------------------
                     Demand      Head  Pressure
  Node                  Lpm         m         m
  ----------------------------------------------
  2                 1309.22     98.28      8.28
  3                 1294.04     96.13      8.13
  4                 1279.94     93.54      3.54
  5                 2398.71     92.36      7.36
  1                -6281.90    100.00     -0.00  Reservoir
   
   
  Node Results at 17:00:00 hrs:
  ----------------------------------------------
                     Demand      Head  Pressure
  Node                  Lpm         m         m
  ----------------------------------------------
  2                 1309.22     98.28      8.28
  3                 1294.04     96.13      8.13
  4                 1279.94     93.54      3.54
  5                 2398.71     92.36      7.36
  1                -6281.90    100.00     -0.00  Reservoir
   
   
  Node Results at 18:00:00 hrs:
  ----------------------------------------------
                     Demand      Head  Pressure
  Node                  Lpm         m         m
  ----------------------------------------------
  2                 1309.22     98.28      8.28
  3                 1294.04     96.13      8.13
  4                 1279.94     93.54      3.54
  5                 2398.71     92.36      7.36
  1                -6281.90    100.00     -0.00  Reservoir
   
   
  Node Results at 19:00:00 hrs:
  ----------------------------------------------
                     Demand      Head  Pressure
  Node                  Lpm         m         m
  ----------------------------------------------
  2                 1309.22     98.28      8.28
  3                 1294.04     96.13      8.13
  4                 1279.94     93.54      3.54
  5                 2398.71     92.36      7.36
  1                -6281.90    100.00     -0.00  Reservoir
   
   
  Node Results at 20:00:00 hrs:
  ----------------------------------------------
                     Demand      Head  Pressure
  Node                  Lpm         m         m
  ----------------------------------------------
  2                 1309.22     98.28      8.28
  3                 1294.04     96.13      8.13
  4                 1279.94     93.54      3.54
  5                 2398.71     92.36      7.36
  1                -6281.90    100.00     -0.00  Reservoir
   
   
  Node Results at 21:00:00 hrs:
  ----------------------------------------------
                     Demand      Head  Pressure
  Node                  Lpm         m         m
  ----------------------------------------------
  2                 1309.22     98.28      8.28
  3                 1294.04     96.13      8.13
  4                 1279.94     93.54      3.54
  5                 2398.71     92.36      7.36
  1                -6281.90    100.00     -0.00  Reservoir
   
   
  Node Results at 22:00:00 hrs:
  ----------------------------------------------
                     Demand      Head  Pressure
  Node                  Lpm         m         m
  ----------------------------------------------
  2                 1309.22     98.28      8.28
  3                 1294.04     96.13      8.13
  4                 1279.94     93.54      3.54
  5                 2398.71     92.36      7.36
  1                -6281.90    100.00     -0.00  Reservoir
   
   
  Node Results at 23:00:00 hrs:
  ----------------------------------------------
                     Demand      Head  Pressure
  Node                  Lpm         m         m
  ----------------------------------------------
  2                 1309.22     98.28      8.28
  3                 1294.04     96.13      8.13
  4                 1279.94     93.54      3.54
  5                 2398.71     92.36      7.36
  1                -6281.90    100.00     -0.00  Reservoir
   
   
  Node Results at 24:00:00 hrs:
  ----------------------------------------------
                     Demand      Head  Pressure
  Node                  Lpm         m         m
  ----------------------------------------------
  2                 1309.22     98.28      8.28
  3                 1294.04     96.13      8.13
  4                 1279.94     93.54      3.54
  5                 2398.71     92.36      7.36
  1                -6281.90    100.00     -0.00  Reservoir
   
  Analysis ended Tue May 22 22:43:17 2018
